<?xml version="1.0" encoding="UTF-8"?>

<!-- generated on 2024-12-20 21:28:25 by Eclipse SUMO netedit Version 1.21.0
<neteditConfiguration xmlns:xsi="http://www.w3.org/2001/XMLSchema-instance" xsi:noNamespaceSchemaLocation="http://sumo.dlr.de/xsd/neteditConfiguration.xsd">

    <input>
        <sumocfg-file value="C:\Users\lenovo\Desktop\Projet RL\test.sumocfg"/>
        <sumo-net-file value="C:\Users\lenovo\Desktop\Projet RL\test.net.xml"/>
    </input>

    <output>
        <output-file value="C:\Users\lenovo\Desktop\Projet RL\test.net.xml"/>
    </output>

    <processing>
        <geometry.min-radius.fix.railways value="false"/>
        <geometry.max-grade.fix value="false"/>
        <offset.disable-normalization value="true"/>
        <lefthand value="0"/>
    </processing>

    <junctions>
        <no-turnarounds value="true"/>
        <junctions.corner-detail value="5"/>
        <junctions.limit-turn-speed value="5.50"/>
        <rectangular-lane-cut value="0"/>
    </junctions>

    <pedestrian>
        <walkingareas value="0"/>
    </pedestrian>

</neteditConfiguration>
-->

<net version="1.20" junctionCornerDetail="5" limitTurnSpeed="5.50" xmlns:xsi="http://www.w3.org/2001/XMLSchema-instance" xsi:noNamespaceSchemaLocation="http://sumo.dlr.de/xsd/net_file.xsd">

    <location netOffset="0.00,0.00" convBoundary="-83.30,-10.80,45.11,15.68" origBoundary="-10000000000.00,-10000000000.00,10000000000.00,10000000000.00" projParameter="!"/>

    <edge id=":J10_0" function="internal">
        <lane id=":J10_0_0" index="0" speed="13.89" length="0.58" shape="-5.28,4.33 -4.87,3.92"/>
    </edge>
    <edge id=":J7_0" function="internal">
        <lane id=":J7_0_0" index="0" speed="6.49" length="6.71" shape="-4.81,4.11 -4.03,5.62 -2.90,6.70 -1.42,7.35 0.40,7.56"/>
    </edge>
    <edge id=":J7_1" function="internal">
        <lane id=":J7_1_0" index="0" speed="13.89" length="9.11" shape="-8.70,7.58 0.40,7.56"/>
        <lane id=":J7_1_1" index="1" speed="13.89" length="9.11" shape="-8.70,10.78 0.42,10.76"/>
        <lane id=":J7_1_2" index="2" speed="13.89" length="9.11" shape="-8.69,13.98 0.43,13.96"/>
    </edge>

    <edge id="E2" from="J6" to="J7" priority="-1">
        <lane id="E2_0" index="0" speed="13.89" length="74.61" shape="-83.31,7.68 -8.70,7.58"/>
        <lane id="E2_1" index="1" speed="13.89" length="74.61" shape="-83.31,10.88 -8.70,10.78"/>
        <lane id="E2_2" index="2" speed="13.89" length="74.61" shape="-83.30,14.08 -8.69,13.98"/>
    </edge>
    <edge id="E3" from="J7" to="J8" priority="-1">
        <lane id="E3_0" index="0" speed="13.89" length="44.67" shape="0.40,7.56 45.07,7.34"/>
        <lane id="E3_1" index="1" speed="13.89" length="44.67" shape="0.42,10.76 45.09,10.54"/>
        <lane id="E3_2" index="2" speed="13.89" length="44.67" shape="0.43,13.96 45.10,13.74"/>
    </edge>
    <edge id="E4" from="J9" to="J10" priority="-1">
        <lane id="E4_0" index="0" speed="13.89" length="42.26" shape="-44.14,-12.27 -5.28,4.33"/>
    </edge>
    <edge id="E5" from="J10" to="J7" priority="-1">
        <lane id="E5_0" index="0" speed="13.89" length="0.20" shape="-4.87,3.92 -4.81,4.11"/>
    </edge>

    <tlLogic id="J10" type="static" programID="0" offset="0">
        <phase duration="82" state="G"/>
        <phase duration="3"  state="y"/>
        <phase duration="5"  state="r"/>
    </tlLogic>

    <junction id="J10" type="traffic_light" x="-5.91" y="5.80" incLanes="E4_0" intLanes=":J10_0_0" shape="-5.91,5.80 -2.89,4.75 -3.29,3.94 -3.56,3.61 -3.88,3.31 -4.24,3.06 -4.65,2.86">
        <request index="0" response="0" foes="0" cont="0"/>
    </junction>
    <junction id="J6" type="dead_end" x="-83.30" y="15.68" incLanes="" intLanes="" shape="-83.30,15.68 -83.31,6.08"/>
    <junction id="J7" type="priority" x="-2.50" y="15.57" incLanes="E5_0 E2_0 E2_1 E2_2" intLanes=":J7_0_0 :J7_1_0 :J7_1_1 :J7_1_2" shape="0.44,15.56 0.39,5.96 -3.77,2.22 -6.79,3.28 -8.70,5.98 -8.69,15.58">
        <request index="0" response="1110" foes="1110" cont="0"/>
        <request index="1" response="0000" foes="0001" cont="0"/>
        <request index="2" response="0000" foes="0001" cont="0"/>
        <request index="3" response="0000" foes="0001" cont="0"/>
    </junction>
    <junction id="J8" type="dead_end" x="45.11" y="15.34" incLanes="E3_0 E3_1 E3_2" intLanes="" shape="45.06,5.74 45.11,15.34"/>
    <junction id="J9" type="dead_end" x="-44.77" y="-10.80" incLanes="" intLanes="" shape="-44.77,-10.80 -43.51,-13.74"/>

    <connection from="E2" to="E3" fromLane="0" toLane="0" via=":J7_1_0" dir="s" state="M"/>
    <connection from="E2" to="E3" fromLane="1" toLane="1" via=":J7_1_1" dir="s" state="M"/>
    <connection from="E2" to="E3" fromLane="2" toLane="2" via=":J7_1_2" dir="s" state="M"/>
    <connection from="E4" to="E5" fromLane="0" toLane="0" via=":J10_0_0" tl="J10" linkIndex="0" dir="l" state="O"/>
    <connection from="E5" to="E3" fromLane="0" toLane="0" via=":J7_0_0" dir="r" state="m"/>

    <connection from=":J10_0" to="E5" fromLane="0" toLane="0" dir="l" state="M"/>
    <connection from=":J7_0" to="E3" fromLane="0" toLane="0" dir="r" state="M"/>
    <connection from=":J7_1" to="E3" fromLane="0" toLane="0" dir="s" state="M"/>
    <connection from=":J7_1" to="E3" fromLane="1" toLane="1" dir="s" state="M"/>
    <connection from=":J7_1" to="E3" fromLane="2" toLane="2" dir="s" state="M"/>

</net>
