<?xml version="1.0" encoding="UTF-8"?>

<!-- generated on 2024-12-16 18:10:16 by Eclipse SUMO sumo Version 1.21.0
-->

<sumoConfiguration xmlns:xsi="http://www.w3.org/2001/XMLSchema-instance" xsi:noNamespaceSchemaLocation="http://sumo.dlr.de/xsd/sumoConfiguration.xsd">

    <input>
        <net-file value="wee1.net.xml"/>
        <route-files value="demand1.rou.xml"/>
        <!-- <additional-files value="test.add.xml"/> -->
    </input>

</sumoConfiguration>
