<?xml version="1.0" encoding="UTF-8"?>

<!-- generated on 2024-12-18 22:54:14 by Eclipse SUMO netedit Version 1.21.0
<neteditConfiguration xmlns:xsi="http://www.w3.org/2001/XMLSchema-instance" xsi:noNamespaceSchemaLocation="http://sumo.dlr.de/xsd/neteditConfiguration.xsd">

    <input>
        <sumo-net-file value="C:\Users\lenovo\Desktop\Projet RL\wee1.net.xml"/>
    </input>

    <output>
        <output-file value="C:\Users\lenovo\Desktop\Projet RL\wee1.net.xml"/>
    </output>

    <processing>
        <geometry.min-radius.fix.railways value="false"/>
        <geometry.max-grade.fix value="false"/>
        <offset.disable-normalization value="true"/>
        <lefthand value="0"/>
    </processing>

    <junctions>
        <no-turnarounds value="true"/>
        <junctions.corner-detail value="5"/>
        <junctions.limit-turn-speed value="5.50"/>
        <rectangular-lane-cut value="0"/>
    </junctions>

    <pedestrian>
        <walkingareas value="0"/>
    </pedestrian>

</neteditConfiguration>
-->

<net version="1.20" junctionCornerDetail="5" limitTurnSpeed="5.50" xmlns:xsi="http://www.w3.org/2001/XMLSchema-instance" xsi:noNamespaceSchemaLocation="http://sumo.dlr.de/xsd/net_file.xsd">

    <location netOffset="0.00,0.00" convBoundary="-93.12,-30.34,81.29,4.62" origBoundary="-10000000000.00,-10000000000.00,10000000000.00,10000000000.00" projParameter="!"/>

    <edge id=":J1_0" function="internal">
        <lane id=":J1_0_0" index="0" speed="7.92" length="7.49" shape="-12.85,-7.74 -11.39,-5.89 -9.93,-4.57 -8.46,-3.77 -6.99,-3.51"/>
    </edge>
    <edge id=":J1_1" function="internal">
        <lane id=":J1_1_0" index="0" speed="13.89" length="8.08" shape="-15.07,-3.50 -6.99,-3.51"/>
        <lane id=":J1_1_1" index="1" speed="13.89" length="8.08" shape="-15.07,-0.30 -6.99,-0.31"/>
        <lane id=":J1_1_2" index="2" speed="13.89" length="8.08" shape="-15.06,2.90 -6.99,2.89"/>
    </edge>
    <edge id=":J4_0" function="internal">
        <lane id=":J4_0_0" index="0" speed="13.89" length="0.85" shape="-15.48,-11.18 -15.25,-11.07 -15.11,-10.97 -14.99,-10.84 -14.84,-10.64"/>
    </edge>

    <edge id="E0" from="J0" to="J1" priority="3" numLanes="3">
        <lane id="E0_0" index="0" speed="13.89" length="78.06" shape="-93.13,-3.38 -15.07,-3.50" allow="all"/>
        <lane id="E0_1" index="1" speed="13.89" length="78.06" shape="-93.13,-0.18 -15.07,-0.30" allow="all"/>
        <lane id="E0_2" index="2" speed="13.89" length="78.06" shape="-93.12,3.02 -15.06,2.90" allow="all"/>
    </edge>

    <edge id="E1" from="J1" to="J2" priority="-1">
        <lane id="E1_0" index="0" speed="13.89" length="88.28" shape="-6.99,-3.51 81.29,-3.51"/>
        <lane id="E1_1" index="1" speed="13.89" length="88.28" shape="-6.99,-0.31 81.29,-0.31"/>
        <lane id="E1_2" index="2" speed="13.89" length="88.28" shape="-6.99,2.89 81.29,2.89"/>
    </edge>
    <edge id="E2" from="J3" to="J4" priority="-1">
        <lane id="E2_0" index="0" speed="13.89" length="48.31" shape="-59.17,-31.79 -15.48,-11.18"/>
    </edge>
    <edge id="E3" from="J4" to="J1" priority="-1" >
        <lane id="E3_0" index="0" speed="13.89" length="6.00" shape="-14.84,-10.64 -12.85,-7.74"/>
    </edge>

    <tlLogic id="J4" type="static" programID="0" offset="0">
        <phase duration="82" state="G"/>
        <phase duration="5"  state="r"/>
    </tlLogic>

    <junction id="J0" type="dead_end" x="-93.12" y="4.62" incLanes="" intLanes="" shape="-93.12,4.62 -93.13,-4.98"/>
    <junction id="J1" type="priority" x="-6.37" y="4.49" incLanes="E3_0 E0_0 E0_1 E0_2" intLanes=":J1_0_0 :J1_1_0 :J1_1_1 :J1_1_2" shape="-6.99,4.49 -6.99,-5.11 -8.43,-5.50 -9.18,-5.99 -9.94,-6.68 -10.73,-7.57 -11.53,-8.65 -14.16,-6.83 -13.74,-5.87 -13.80,-5.53 -14.04,-5.29 -14.47,-5.15 -15.07,-5.10 -15.06,4.50">
        <request index="0" response="1110" foes="1110" cont="0"/>
        <request index="1" response="0000" foes="0001" cont="0"/>
        <request index="2" response="0000" foes="0001" cont="0"/>
        <request index="3" response="0000" foes="0001" cont="0"/>
    </junction>
    <junction id="J2" type="dead_end" x="81.29" y="4.49" incLanes="E1_0 E1_1 E1_2" intLanes="" shape="81.29,-5.11 81.29,4.49"/>
    <junction id="J3" type="dead_end" x="-59.85" y="-30.34" incLanes="" intLanes="" shape="-59.85,-30.34 -58.48,-33.23"/>
    <junction id="J4" type="traffic_light" x="-16.16" y="-9.73" incLanes="E2_0" intLanes=":J4_0_0" shape="-16.16,-9.73 -13.52,-11.54 -13.90,-12.05 -14.05,-12.21 -14.24,-12.34 -14.47,-12.47 -14.79,-12.62">
        <request index="0" response="0" foes="0" cont="0"/>
    </junction>

    <connection from="E0" to="E1" fromLane="0" toLane="0" via=":J1_1_0" dir="s" state="M"/>
    <connection from="E0" to="E1" fromLane="1" toLane="1" via=":J1_1_1" dir="s" state="M"/>
    <connection from="E0" to="E1" fromLane="2" toLane="2" via=":J1_1_2" dir="s" state="M"/>
    <connection from="E2" to="E3" fromLane="0" toLane="0" via=":J4_0_0" tl="J4" linkIndex="0" dir="s" state="O"/>
    <connection from="E3" to="E1" fromLane="0" toLane="0" via=":J1_0_0" dir="r" state="m"/>



    <connection from=":J1_0" to="E1" fromLane="0" toLane="0" dir="r" state="M"/>
    <connection from=":J1_1" to="E1" fromLane="0" toLane="0" dir="s" state="M"/>
    <connection from=":J1_1" to="E1" fromLane="1" toLane="1" dir="s" state="M"/>
    <connection from=":J1_1" to="E1" fromLane="2" toLane="2" dir="s" state="M"/>
    <connection from=":J4_0" to="E3" fromLane="0" toLane="0" dir="s" state="M"/>

</net>
