<?xml version="1.0" encoding="UTF-8"?>

<!-- generated on 2024-12-19 18:40:56 by Eclipse SUMO netedit Version 1.21.0 -->

<net version="1.20" junctionCornerDetail="5" limitTurnSpeed="5.50" xmlns:xsi="http://www.w3.org/2001/XMLSchema-instance" xsi:noNamespaceSchemaLocation="http://sumo.dlr.de/xsd/net_file.xsd">

    <location netOffset="0.00,0.00" convBoundary="-93.12,-22.79,81.29,4.62" origBoundary="-10000000000.00,-10000000000.00,10000000000.00,10000000000.00" projParameter="!"/>

    <edge id=":J1_0" function="internal">
        <lane id=":J1_0_0" index="0" speed="13.89" length="14.97" shape="-28.29,-8.31 -25.26,-6.61 -22.41,-5.07 -19.01,-3.94 -14.36,-3.51"/>
    </edge>
    <edge id=":J1_1" function="internal">
        <lane id=":J1_1_0" index="0" speed="13.89" length="15.07" shape="-29.43,-3.48 -14.36,-3.51"/>
        <lane id=":J1_1_1" index="1" speed="13.89" length="15.07" shape="-29.43,-0.28 -14.36,-0.31"/>
        <lane id=":J1_1_2" index="2" speed="13.89" length="15.07" shape="-29.42,2.92 -14.36,2.89"/>
    </edge>
    <edge id=":J7_0" function="internal">
        <lane id=":J7_0_0" index="0" speed="13.89" length="0.24" shape="-29.44,-8.86 -29.37,-8.84 -29.33,-8.83 -29.28,-8.81 -29.22,-8.77"/>
    </edge>

    <edge id="E0" from="J0" to="J1" priority="3">
        <lane id="E0_0" index="0" speed="13.89" length="63.70" shape="-93.13,-3.38 -29.43,-3.48"/>
        <lane id="E0_1" index="1" speed="13.89" length="63.70" shape="-93.13,-0.18 -29.43,-0.28"/>
        <lane id="E0_2" index="2" speed="13.89" length="63.70" shape="-93.12,3.02 -29.42,2.92"/>
    </edge>
    <edge id="E1" from="J1" to="J2" priority="-1">
        <lane id="E1_0" index="0" speed="13.89" length="95.65" shape="-14.36,-3.51 81.29,-3.51"/>
        <lane id="E1_1" index="1" speed="13.89" length="95.65" shape="-14.36,-0.31 81.29,-0.31"/>
        <lane id="E1_2" index="2" speed="13.89" length="95.65" shape="-14.36,2.89 81.29,2.89"/>
    </edge>
    <edge id="E4" from="J7" to="J1" priority="-1">
        <lane id="E4_0" index="0" speed="13.89" length="1.04" shape="-29.22,-8.77 -28.29,-8.31"/>
    </edge>
    <edge id="E5" from="J8" to="J7" priority="-1">
        <lane id="E5_0" index="0" speed="13.89" length="49.42" shape="-76.38,-24.31 -29.44,-8.86"/>
    </edge>

    <junction id="J0" type="dead_end" x="-93.12" y="4.62" incLanes="" intLanes="" shape="-93.12,4.62 -93.13,-4.98"/>
    <junction id="J1" type="priority" x="-6.37" y="4.49" incLanes="E4_0 E0_0 E0_1 E0_2" intLanes=":J1_0_0 :J1_1_0 :J1_1_1 :J1_1_2" shape="-14.36,4.49 -14.36,-5.11 -17.33,-5.23 -19.50,-5.61 -21.24,-6.25 -22.92,-7.14 -24.91,-8.30 -27.57,-9.74 -29.01,-6.88 -29.43,-5.08 -29.42,4.52">
        <request index="0" response="1110" foes="1110" cont="0"/>
        <request index="1" response="0000" foes="0001" cont="0"/>
        <request index="2" response="0000" foes="0001" cont="0"/>
        <request index="3" response="0000" foes="0001" cont="0"/>
    </junction>
   
    <junction id="J2" type="dead_end" x="81.29" y="4.49" incLanes="E1_0 E1_1 E1_2" intLanes="" shape="81.29,-5.11 81.29,4.49"/>
   
    <junction id="J7" type="priority" x="-29.94" y="-7.34" incLanes="E5_0" intLanes=":J7_0_0" shape="-29.94,-7.34 -28.50,-10.20 -28.66,-10.28 -28.72,-10.31 -28.77,-10.33 -28.94,-10.38">
    <request index="0" response="0" foes="0" cont="0"/>
    </junction> 

    <junction id="J8" type="dead_end" x="-76.88" y="-22.79" incLanes="" intLanes="" shape="-76.88,-22.79 -75.88,-25.83"/>

    <connection from="E0" to="E1" fromLane="0" toLane="0" via=":J1_1_0" dir="s" state="M"/>
    <connection from="E0" to="E1" fromLane="1" toLane="1" via=":J1_1_1" dir="s" state="M"/>
    <connection from="E0" to="E1" fromLane="2" toLane="2" via=":J1_1_2" dir="s" state="M"/>
    <connection from="E4" to="E1" fromLane="0" toLane="0" via=":J1_0_0" dir="s" state="m"/>
    <connection from="E5" to="E4" fromLane="0" toLane="0" via=":J7_0_0" dir="s" state="O"/>

    <connection from=":J1_0" to="E1" fromLane="0" toLane="0" dir="s" state="M"/>
    <connection from=":J1_1" to="E1" fromLane="0" toLane="0" dir="s" state="M"/>
    <connection from=":J1_1" to="E1" fromLane="1" toLane="1" dir="s" state="M"/>
    <connection from=":J1_1" to="E1" fromLane="2" toLane="2" dir="s" state="M"/>
    <connection from=":J7_0" to="E4" fromLane="0" toLane="0" dir="s" state="M"/>

</net>
