<?xml version="1.0" encoding="UTF-8"?>

<sumoConfiguration xmlns:xsi="http://www.w3.org/2001/XMLSchema-instance" xsi:noNamespaceSchemaLocation="http://sumo.dlr.de/xsd/sumoConfiguration.xsd">

    <input>
        <net-file value="no_trafficLight_network.net.xml"/>
        <route-files value="demand.rou.xml"/>
        <!-- <additional-files value="tls.xml"/> -->
    </input>



</sumoConfiguration>
