<?xml version="1.0" encoding="UTF-8"?>

<!-- generated on 2024-12-21 21:30:13 by Eclipse SUMO netedit Version 1.21.0
<neteditConfiguration xmlns:xsi="http://www.w3.org/2001/XMLSchema-instance" xsi:noNamespaceSchemaLocation="http://sumo.dlr.de/xsd/neteditConfiguration.xsd">

    <input>
        <sumo-net-file value="C:\Users\lenovo\Desktop\Projet RL\sumo_config\wee1.net.xml"/>
    </input>

    <output>
        <output-file value="C:\Users\lenovo\Desktop\Projet RL\sumo_config\wee1.net.xml"/>
    </output>

    <processing>
        <geometry.min-radius.fix.railways value="false"/>
        <geometry.max-grade.fix value="false"/>
        <offset.disable-normalization value="true"/>
        <lefthand value="0"/>
    </processing>

    <junctions>
        <no-turnarounds value="true"/>
        <junctions.corner-detail value="5"/>
        <junctions.limit-turn-speed value="5.50"/>
        <rectangular-lane-cut value="0"/>
    </junctions>

    <pedestrian>
        <walkingareas value="0"/>
    </pedestrian>

</neteditConfiguration>
-->

<net version="1.20" junctionCornerDetail="5" limitTurnSpeed="5.50" xmlns:xsi="http://www.w3.org/2001/XMLSchema-instance" xsi:noNamespaceSchemaLocation="http://sumo.dlr.de/xsd/net_file.xsd">

    <location netOffset="0.00,0.00" convBoundary="-93.12,-22.79,81.29,4.62" origBoundary="-10000000000.00,-10000000000.00,10000000000.00,10000000000.00" projParameter="!"/>

    <edge id=":J1_0" function="internal">
        <lane id=":J1_0_0" index="0" speed="13.89" length="14.97" shape="-28.30,-8.31 -25.27,-6.61 -22.42,-5.07 -19.02,-3.94 -14.36,-3.51"/>
    </edge>
    <edge id=":J1_1" function="internal">
        <lane id=":J1_1_0" index="0" speed="13.89" length="15.07" shape="-29.44,-3.48 -14.36,-3.51"/>
        <lane id=":J1_1_1" index="1" speed="13.89" length="15.07" shape="-29.43,-0.28 -14.36,-0.31"/>
        <lane id=":J1_1_2" index="2" speed="13.89" length="15.07" shape="-29.43,2.92 -14.36,2.89"/>
    </edge>
    <edge id=":J7_0" function="internal">
        <lane id=":J7_0_0" index="0" speed="16.95" length="0.24" shape="-29.44,-8.86 -29.37,-8.84 -29.33,-8.82 -29.28,-8.80 -29.22,-8.77"/>
    </edge>

    <edge id="E0" from="J0" to="J1" priority="3" length="300.00">
        <lane id="E0_0" index="0" speed="13.89" length="300.00" shape="-93.13,-3.38 -29.44,-3.48"/>
        <lane id="E0_1" index="1" speed="13.89" length="300.00" shape="-93.13,-0.18 -29.43,-0.28"/>
        <lane id="E0_2" index="2" speed="13.89" length="300.00" shape="-93.12,3.02 -29.43,2.92"/>
    </edge>
    <edge id="E1" from="J1" to="J2" priority="-1" length="300.00">
        <lane id="E1_0" index="0" speed="13.89" length="300.00" shape="-14.36,-3.51 81.29,-3.51"/>
        <lane id="E1_1" index="1" speed="13.89" length="300.00" shape="-14.36,-0.31 81.29,-0.31"/>
        <lane id="E1_2" index="2" speed="13.89" length="300.00" shape="-14.36,2.89 81.29,2.89"/>
    </edge>
    <edge id="E4" from="J7" to="J1" priority="-1" length="12.00">
        <lane id="E4_0" index="0" speed="13.89" length="12.00" shape="-29.22,-8.77 -28.30,-8.31"/>
    </edge>
    <edge id="E5" from="J8" to="J7" priority="-3" length="200.00">
        <lane id="E5_0" index="0" speed="20.00" length="200.00" shape="-76.38,-24.31 -29.44,-8.86"/>
    </edge>

    <tlLogic id="J7" type="static" programID="0" offset="0">
        <phase duration="82" state="G"/>
        <phase duration="5"  state="r"/>
    </tlLogic>

    <junction id="J0" type="dead_end" x="-93.12" y="4.62" incLanes="" intLanes="" shape="-93.12,4.62 -93.13,-4.98"/>
    <junction id="J1" type="priority" x="-6.37" y="4.49" incLanes="E4_0 E0_0 E0_1 E0_2" intLanes=":J1_0_0 :J1_1_0 :J1_1_1 :J1_1_2" shape="-14.36,4.49 -14.36,-5.11 -17.34,-5.23 -19.51,-5.61 -21.25,-6.25 -22.93,-7.14 -24.91,-8.30 -27.58,-9.74 -29.02,-6.88 -29.44,-5.08 -29.43,4.52">
        <request index="0" response="1110" foes="1110" cont="0"/>
        <request index="1" response="0000" foes="0001" cont="0"/>
        <request index="2" response="0000" foes="0001" cont="0"/>
        <request index="3" response="0000" foes="0001" cont="0"/>
    </junction>
    <junction id="J2" type="dead_end" x="81.29" y="4.49" incLanes="E1_0 E1_1 E1_2" intLanes="" shape="81.29,-5.11 81.29,4.49"/>
    <junction id="J7" type="traffic_light" x="-29.94" y="-7.34" incLanes="E5_0" intLanes=":J7_0_0" shape="-29.94,-7.34 -28.50,-10.20 -28.66,-10.28 -28.72,-10.30 -28.77,-10.32 -28.94,-10.38">
        <request index="0" response="0" foes="0" cont="0"/>
    </junction>
    <junction id="J8" type="dead_end" x="-76.88" y="-22.79" incLanes="" intLanes="" shape="-76.88,-22.79 -75.88,-25.83"/>

    <connection from="E0" to="E1" fromLane="0" toLane="0" via=":J1_1_0" dir="s" state="M"/>
    <connection from="E0" to="E1" fromLane="1" toLane="1" via=":J1_1_1" dir="s" state="M"/>
    <connection from="E0" to="E1" fromLane="2" toLane="2" via=":J1_1_2" dir="s" state="M"/>
    <connection from="E4" to="E1" fromLane="0" toLane="0" via=":J1_0_0" dir="s" state="m"/>
    <connection from="E5" to="E4" fromLane="0" toLane="0" via=":J7_0_0" tl="J7" linkIndex="0" dir="s" state="O"/>

    <connection from=":J1_0" to="E1" fromLane="0" toLane="0" dir="s" state="M"/>
    <connection from=":J1_1" to="E1" fromLane="0" toLane="0" dir="s" state="M"/>
    <connection from=":J1_1" to="E1" fromLane="1" toLane="1" dir="s" state="M"/>
    <connection from=":J1_1" to="E1" fromLane="2" toLane="2" dir="s" state="M"/>
    <connection from=":J7_0" to="E4" fromLane="0" toLane="0" dir="s" state="M"/>

</net>
